<?xml version="1.0" encoding="UTF-8"?>

<!-- generated on Tue 11 Jun 2019 12:00:00 PM -03 by Eclipse SUMO netedit Version 1.1.0
<configuration xmlns:xsi="http://www.w3.org/2001/XMLSchema-instance" xsi:noNamespaceSchemaLocation="http://sumo.dlr.de/xsd/netconvertConfiguration.xsd">

    <input>
        <sumo-net-file value="unicamp_test.net.xml"/>
    </input>

    <output>
        <output-file value="unicamp_test.net.xml"/>
    </output>

    <processing>
        <geometry.max-grade.fix value="false"/>
        <offset.disable-normalization value="true"/>
        <lefthand value="false"/>
    </processing>

    <junctions>
        <no-turnarounds value="true"/>
        <junctions.corner-detail value="5"/>
        <junctions.limit-turn-speed value="5.5"/>
        <rectangular-lane-cut value="false"/>
    </junctions>

    <pedestrian>
        <walkingareas value="false"/>
    </pedestrian>

</configuration>
-->

<net version="1.1" junctionCornerDetail="5" limitTurnSpeed="5.50" xmlns:xsi="http://www.w3.org/2001/XMLSchema-instance" xsi:noNamespaceSchemaLocation="http://sumo.dlr.de/xsd/net_file.xsd">
    <location netOffset="-286461.10,2525665.13" convBoundary="662.30,210.10,2214.43,1451.98" origBoundary="-47.080686,-22.825130,-47.058952,-22.810053" projParameter="+proj=utm +zone=23 +ellps=WGS84 +datum=WGS84 +units=m +no_defs"/>

    <type id="highway.bridleway" priority="1" numLanes="1" speed="2.78" allow="pedestrian" oneway="1" width="2.00"/>
    <type id="highway.bus_guideway" priority="1" numLanes="1" speed="27.78" allow="bus" oneway="1"/>
    <type id="highway.cycleway" priority="1" numLanes="1" speed="8.33" allow="bicycle" oneway="0" width="1.00"/>
    <type id="highway.footway" priority="1" numLanes="1" speed="2.78" allow="pedestrian" oneway="1" width="2.00"/>
    <type id="highway.ford" priority="1" numLanes="1" speed="2.78" allow="army" oneway="0"/>
    <type id="highway.living_street" priority="3" numLanes="1" speed="2.78" disallow="tram rail_urban rail rail_electric ship" oneway="0"/>
    <type id="highway.motorway" priority="13" numLanes="2" speed="44.44" allow="private emergency authority army vip passenger hov taxi bus coach delivery truck trailer motorcycle evehicle custom1 custom2" oneway="1"/>
    <type id="highway.motorway_link" priority="12" numLanes="1" speed="22.22" allow="private emergency authority army vip passenger hov taxi bus coach delivery truck trailer motorcycle evehicle custom1 custom2" oneway="1"/>
    <type id="highway.path" priority="1" numLanes="1" speed="2.78" allow="bicycle pedestrian" oneway="1" width="2.00"/>
    <type id="highway.pedestrian" priority="1" numLanes="1" speed="2.78" allow="pedestrian" oneway="1" width="2.00"/>
    <type id="highway.primary" priority="9" numLanes="2" speed="27.78" disallow="tram rail_urban rail rail_electric ship" oneway="0"/>
    <type id="highway.primary_link" priority="8" numLanes="1" speed="22.22" disallow="tram rail_urban rail rail_electric ship" oneway="0"/>
    <type id="highway.raceway" priority="14" numLanes="2" speed="83.33" allow="vip" oneway="0"/>
    <type id="highway.residential" priority="4" numLanes="1" speed="13.89" disallow="tram rail_urban rail rail_electric ship" oneway="0"/>
    <type id="highway.secondary" priority="7" numLanes="2" speed="27.78" disallow="tram rail_urban rail rail_electric ship" oneway="0"/>
    <type id="highway.secondary_link" priority="6" numLanes="1" speed="22.22" disallow="tram rail_urban rail rail_electric ship" oneway="0"/>
    <type id="highway.service" priority="2" numLanes="1" speed="5.56" allow="delivery bicycle pedestrian" oneway="0"/>
    <type id="highway.stairs" priority="1" numLanes="1" speed="1.39" allow="pedestrian" oneway="1" width="2.00"/>
    <type id="highway.step" priority="1" numLanes="1" speed="1.39" allow="pedestrian" oneway="1" width="2.00"/>
    <type id="highway.steps" priority="1" numLanes="1" speed="1.39" allow="pedestrian" oneway="1" width="2.00"/>
    <type id="highway.tertiary" priority="6" numLanes="1" speed="22.22" disallow="tram rail_urban rail rail_electric ship" oneway="0"/>
    <type id="highway.tertiary_link" priority="5" numLanes="1" speed="22.22" disallow="tram rail_urban rail rail_electric ship" oneway="0"/>
    <type id="highway.track" priority="1" numLanes="1" speed="5.56" disallow="tram rail_urban rail rail_electric ship" oneway="0"/>
    <type id="highway.trunk" priority="11" numLanes="2" speed="27.78" disallow="tram rail_urban rail rail_electric bicycle pedestrian ship" oneway="0"/>
    <type id="highway.trunk_link" priority="10" numLanes="1" speed="22.22" disallow="tram rail_urban rail rail_electric bicycle pedestrian ship" oneway="0"/>
    <type id="highway.unclassified" priority="5" numLanes="1" speed="13.89" disallow="tram rail_urban rail rail_electric ship" oneway="0"/>
    <type id="highway.unsurfaced" priority="1" numLanes="1" speed="8.33" disallow="tram rail_urban rail rail_electric ship" oneway="0"/>
    <type id="railway.light_rail" priority="15" numLanes="1" speed="27.78" allow="rail_urban" oneway="1"/>
    <type id="railway.preserved" priority="15" numLanes="1" speed="27.78" allow="rail" oneway="1"/>
    <type id="railway.rail" priority="15" numLanes="1" speed="83.33" allow="rail rail_electric" oneway="1"/>
    <type id="railway.subway" priority="15" numLanes="1" speed="27.78" allow="rail_urban" oneway="1"/>
    <type id="railway.tram" priority="15" numLanes="1" speed="13.89" allow="tram" oneway="1"/>

    <edge id=":1037621615_0" function="internal">
        <lane id=":1037621615_0_0" index="0" disallow="tram rail_urban rail rail_electric ship" speed="22.22" length="4.65" shape="1123.90,395.07 1122.53,395.20 1121.58,395.20 1120.64,395.09 1119.27,394.89"/>
    </edge>
    <edge id=":1102452161_0" function="internal">
        <lane id=":1102452161_0_0" index="0" disallow="tram rail_urban rail rail_electric ship" speed="6.33" length="9.04" shape="1692.13,1158.20 1692.95,1155.83 1692.78,1153.83 1691.61,1152.19 1689.45,1150.91"/>
    </edge>
    <edge id=":1102452161_1" function="internal">
        <lane id=":1102452161_1_0" index="0" disallow="tram rail_urban rail rail_electric ship" speed="22.22" length="11.29" shape="1692.13,1158.20 1697.02,1148.02"/>
    </edge>
    <edge id=":1102452162_0" function="internal">
        <lane id=":1102452162_0_0" index="0" disallow="tram rail_urban rail rail_electric ship" speed="22.22" length="7.26" shape="1637.68,1283.84 1637.45,1285.99 1637.29,1287.46 1637.27,1288.94 1637.44,1291.08"/>
    </edge>
    <edge id=":1102452162_1" function="internal">
        <lane id=":1102452162_1_0" index="0" disallow="tram rail_urban rail rail_electric ship" speed="10.97" length="7.22" shape="1633.77,1285.11 1635.25,1286.67 1636.32,1287.78 1637.03,1289.05 1637.44,1291.08"/>
    </edge>
    <edge id=":1102452331_0" function="internal">
        <lane id=":1102452331_0_0" index="0" disallow="tram rail_urban rail rail_electric ship" speed="22.22" length="8.06" shape="1607.97,1283.87 1613.23,1277.76"/>
    </edge>
    <edge id=":1102452331_1" function="internal">
        <lane id=":1102452331_1_0" index="0" disallow="tram rail_urban rail rail_electric ship" speed="11.58" length="8.03" shape="1607.97,1283.87 1609.71,1282.38 1611.21,1281.78 1612.92,1281.56 1615.29,1281.20"/>
    </edge>
    <edge id=":1102485598_0" function="internal">
        <lane id=":1102485598_0_0" index="0" disallow="tram rail_urban rail rail_electric ship" speed="22.22" length="5.17" shape="970.79,978.99 970.02,977.66 969.51,976.75 969.04,975.80 968.40,974.41"/>
    </edge>
    <edge id=":1117541665_0" function="internal">
        <lane id=":1117541665_0_0" index="0" allow="bicycle" speed="8.33" length="6.25" width="1.00" shape="850.30,692.99 844.33,691.12"/>
    </edge>
    <edge id=":1117541665_1" function="internal">
        <lane id=":1117541665_1_0" index="0" disallow="tram rail_urban rail rail_electric ship" speed="5.28" length="5.84" shape="850.30,692.99 848.66,692.21 847.59,691.25 847.09,690.10 847.15,688.77"/>
    </edge>
    <edge id=":1117541665_2" function="internal">
        <lane id=":1117541665_2_0" index="0" allow="bicycle" speed="2.04" length="1.46" width="1.00" shape="850.30,692.99 850.03,692.63 850.00,692.35 850.20,692.15 850.63,692.04"/>
    </edge>
    <edge id=":1117541665_3" function="internal">
        <lane id=":1117541665_3_0" index="0" disallow="tram rail_urban rail rail_electric ship" speed="3.89" length="3.33" shape="844.60,690.15 845.53,690.28 846.27,690.09 846.81,689.59 847.15,688.77"/>
    </edge>
    <edge id=":1117541665_4" function="internal">
        <lane id=":1117541665_4_0" index="0" allow="bicycle" speed="8.33" length="6.33" width="1.00" shape="844.60,690.15 850.63,692.04"/>
    </edge>
    <edge id=":1117541665_5" function="internal">
        <lane id=":1117541665_5_0" index="0" allow="bicycle" speed="2.04" length="1.46" width="1.00" shape="844.60,690.15 844.89,690.49 844.95,690.77 844.76,690.97 844.33,691.12"/>
    </edge>
    <edge id=":1117541665_6" function="internal">
        <lane id=":1117541665_6_0" index="0" allow="bicycle" speed="4.07" length="3.21" width="1.00" shape="845.50,693.57 845.74,692.70 845.63,692.01 845.16,691.48 844.33,691.12"/>
    </edge>
    <edge id=":1117541665_7" function="internal">
        <lane id=":1117541665_7_0" index="0" disallow="tram rail_urban rail rail_electric ship" speed="22.22" length="5.28" shape="846.51,694.01 847.13,692.58 847.52,691.58 847.83,690.55 848.22,689.03"/>
    </edge>
    <edge id=":1117541665_8" function="internal">
        <lane id=":1117541665_8_0" index="0" allow="bicycle" speed="4.87" length="4.35" width="1.00" shape="847.51,694.46 848.21,693.16 848.96,692.33 849.77,691.96 850.63,692.04"/>
    </edge>
    <edge id=":1117542029_0" function="internal">
        <lane id=":1117542029_0_0" index="0" disallow="tram rail_urban rail rail_electric ship" speed="4.01" length="3.22" shape="859.62,696.24 858.90,696.15 858.25,696.38 857.67,696.92 857.16,697.79"/>
    </edge>
    <edge id=":1117542029_1" function="internal">
        <lane id=":1117542029_1_0" index="0" allow="bicycle" speed="8.33" length="5.86" width="1.00" shape="859.62,696.24 854.08,694.33"/>
    </edge>
    <edge id=":1117542029_2" function="internal">
        <lane id=":1117542029_2_0" index="0" allow="bicycle" speed="2.07" length="1.51" width="1.00" shape="859.62,696.24 859.44,695.81 859.48,695.53 859.73,695.38 860.20,695.38"/>
    </edge>
    <edge id=":1117542029_3" function="internal">
        <lane id=":1117542029_3_0" index="0" allow="bicycle" speed="4.30" length="3.25" width="1.00" shape="859.04,692.74 858.89,693.68 859.03,694.43 859.47,695.00 860.20,695.38"/>
    </edge>
    <edge id=":1117542029_4" function="internal">
        <lane id=":1117542029_4_0" index="0" disallow="tram rail_urban rail rail_electric ship" speed="22.22" length="5.23" shape="857.98,692.44 857.54,693.93 857.21,694.94 856.80,695.92 856.16,697.33"/>
    </edge>
    <edge id=":1117542029_5" function="internal">
        <lane id=":1117542029_5_0" index="0" allow="bicycle" speed="4.58" length="4.11" width="1.00" shape="856.93,692.13 856.43,693.36 855.79,694.14 855.01,694.46 854.08,694.33"/>
    </edge>
    <edge id=":1117542029_6" function="internal">
        <lane id=":1117542029_6_0" index="0" allow="bicycle" speed="8.33" length="6.11" width="1.00" shape="854.42,693.39 860.20,695.38"/>
    </edge>
    <edge id=":1117542029_7" function="internal">
        <lane id=":1117542029_7_0" index="0" disallow="tram rail_urban rail rail_electric ship" speed="5.00" length="5.99" shape="854.42,693.39 856.12,694.21 857.15,695.22 857.50,696.41 857.16,697.79"/>
    </edge>
    <edge id=":1117542029_8" function="internal">
        <lane id=":1117542029_8_0" index="0" allow="bicycle" speed="2.04" length="1.46" width="1.00" shape="854.42,693.39 854.69,693.75 854.72,694.03 854.52,694.22 854.08,694.33"/>
    </edge>
    <edge id=":1117542238_0" function="internal">
        <lane id=":1117542238_0_0" index="0" disallow="tram rail_urban rail rail_electric ship" speed="3.90" length="3.25" shape="788.13,730.09 787.58,730.80 787.38,731.51 787.54,732.23 788.05,732.95"/>
    </edge>
    <edge id=":1117542238_1" function="internal">
        <lane id=":1117542238_1_0" index="0" allow="bicycle" speed="2.04" length="1.46" width="1.00" shape="788.13,730.09 787.69,730.17 787.42,730.08 787.34,729.81 787.43,729.37"/>
    </edge>
    <edge id=":1117542238_2" function="internal">
        <lane id=":1117542238_2_0" index="0" allow="bicycle" speed="4.22" length="3.22" width="1.00" shape="784.61,729.32 785.31,729.87 786.01,730.06 786.72,729.90 787.43,729.37"/>
    </edge>
    <edge id=":1117542238_3" function="internal">
        <lane id=":1117542238_3_0" index="0" disallow="tram rail_urban rail rail_electric ship" speed="22.22" length="5.00" shape="783.81,730.07 787.25,733.71"/>
    </edge>
    <edge id=":1117542401_0" function="internal">
        <lane id=":1117542401_0_0" index="0" allow="bicycle" speed="8.33" length="5.93" width="1.00" shape="863.33,790.67 862.15,791.98 861.32,792.85 860.45,793.68 859.15,794.87"/>
    </edge>
    <edge id=":1117542401_1" function="internal">
        <lane id=":1117542401_1_0" index="0" allow="bicycle" speed="2.04" length="0.73" width="1.00" shape="863.33,790.67 862.89,790.79 862.62,790.71"/>
    </edge>
    <edge id=":1117542401_4" function="internal">
        <lane id=":1117542401_4_0" index="0" allow="bicycle" speed="2.04" length="0.73" width="1.00" shape="862.62,790.71 862.52,790.45 862.59,790.01"/>
    </edge>
    <edge id=":1117542401_2" function="internal">
        <lane id=":1117542401_2_0" index="0" allow="bicycle" speed="8.33" length="5.83" width="1.00" shape="858.47,794.13 859.75,792.96 860.61,792.14 861.42,791.29 862.59,790.01"/>
    </edge>
    <edge id=":1117542401_3" function="internal">
        <lane id=":1117542401_3_0" index="0" allow="bicycle" speed="2.04" length="0.73" width="1.00" shape="858.47,794.13 858.92,794.06 859.18,794.16"/>
    </edge>
    <edge id=":1117542401_5" function="internal">
        <lane id=":1117542401_5_0" index="0" allow="bicycle" speed="2.04" length="0.73" width="1.00" shape="859.18,794.16 859.26,794.43 859.15,794.87"/>
    </edge>
    <edge id=":1117940568_0" function="internal">
        <lane id=":1117940568_0_0" index="0" disallow="tram rail_urban rail rail_electric ship" speed="22.22" length="5.02" shape="1221.82,793.80 1225.41,797.32"/>
    </edge>
    <edge id=":2449854648_0" function="internal">
        <lane id=":2449854648_0_0" index="0" disallow="tram rail_urban rail rail_electric ship" speed="22.22" length="12.48" shape="1643.87,674.81 1646.27,677.85 1648.26,679.77 1649.87,681.85 1651.10,685.38"/>
        <lane id=":2449854648_0_1" index="1" disallow="tram rail_urban rail rail_electric ship" speed="22.22" length="12.48" shape="1641.19,676.55 1643.42,679.32 1645.30,681.04 1646.83,682.91 1647.99,686.13"/>
    </edge>
    <edge id=":2449854648_2" function="internal">
        <lane id=":2449854648_2_0" index="0" disallow="tram rail_urban rail rail_electric ship" speed="14.59" length="9.43" shape="1641.19,676.55 1642.63,678.92 1643.38,680.69 1643.72,682.60 1643.92,685.38"/>
    </edge>
    <edge id=":2449854657_0" function="internal">
        <lane id=":2449854657_0_0" index="0" disallow="tram rail_urban rail rail_electric ship" speed="6.60" length="8.75" shape="1639.79,700.75 1638.38,698.91 1636.67,697.92 1634.65,697.77 1632.32,698.48"/>
    </edge>
    <edge id=":2449854657_1" function="internal">
        <lane id=":2449854657_1_0" index="0" disallow="tram rail_urban rail rail_electric ship" speed="22.22" length="10.66" shape="1639.79,700.75 1634.58,691.45"/>
    </edge>
    <edge id=":2449854657_2" function="internal">
        <lane id=":2449854657_2_0" index="0" disallow="tram rail_urban rail rail_electric ship" speed="12.46" length="11.23" shape="1641.69,693.00 1639.91,695.45 1637.86,696.63 1635.39,697.37 1632.32,698.48"/>
    </edge>
    <edge id=":2449854657_3" function="internal">
        <lane id=":2449854657_3_0" index="0" disallow="tram rail_urban rail rail_electric ship" speed="5.79" length="10.04" shape="1641.69,693.00 1640.14,695.07 1638.43,695.51 1636.58,694.30 1634.58,691.45"/>
    </edge>
    <edge id=":2449854659_0" function="internal">
        <lane id=":2449854659_0_0" index="0" disallow="tram rail_urban rail rail_electric ship" speed="7.02" length="9.67" shape="1536.64,1338.37 1538.80,1340.11 1540.96,1340.88 1543.11,1340.69 1545.27,1339.54"/>
    </edge>
    <edge id=":2449854659_1" function="internal">
        <lane id=":2449854659_1_0" index="0" disallow="tram rail_urban rail rail_electric ship" speed="6.27" length="9.04" shape="1533.78,1348.28 1535.55,1346.48 1536.23,1344.60 1535.83,1342.64 1534.35,1340.60"/>
    </edge>
    <edge id=":2449854659_2" function="internal">
        <lane id=":2449854659_2_0" index="0" disallow="tram rail_urban rail rail_electric ship" speed="22.22" length="14.44" shape="1533.78,1348.28 1545.27,1339.54"/>
    </edge>
    <edge id=":2449854661_0" function="internal">
        <lane id=":2449854661_0_0" index="0" disallow="tram rail_urban rail rail_electric ship" speed="22.22" length="6.65" shape="1492.19,1374.80 1494.00,1374.01 1495.24,1373.46 1496.45,1372.85 1498.17,1371.90"/>
    </edge>
    <edge id=":2449854661_1" function="internal">
        <lane id=":2449854661_1_0" index="0" disallow="tram rail_urban rail rail_electric ship" speed="7.51" length="6.22" shape="1495.59,1377.35 1495.98,1375.39 1496.53,1373.83 1497.26,1372.66 1498.17,1371.90"/>
    </edge>
    <edge id=":2449854663_0" function="internal">
        <lane id=":2449854663_0_0" index="0" disallow="tram rail_urban rail rail_electric ship" speed="22.22" length="0.29" shape="1422.48,1400.05 1422.39,1400.05 1422.34,1400.06 1422.28,1400.07 1422.20,1400.09"/>
    </edge>
    <edge id=":2449854663_1" function="internal">
        <lane id=":2449854663_1_0" index="0" disallow="tram rail_urban rail rail_electric ship" speed="3.76" length="2.35" shape="1422.48,1400.05 1421.12,1399.52 1420.56,1398.82"/>
    </edge>
    <edge id=":2449854663_4" function="internal">
        <lane id=":2449854663_4_0" index="0" disallow="tram rail_urban rail rail_electric ship" speed="3.76" length="2.35" shape="1420.56,1398.82 1420.78,1397.94 1421.79,1396.90"/>
    </edge>
    <edge id=":2449854663_2" function="internal">
        <lane id=":2449854663_2_0" index="0" disallow="tram rail_urban rail rail_electric ship" speed="22.22" length="0.30" shape="1421.49,1396.97 1421.79,1396.90"/>
    </edge>
    <edge id=":2449854663_3" function="internal">
        <lane id=":2449854663_3_0" index="0" disallow="tram rail_urban rail rail_electric ship" speed="3.65" length="2.34" shape="1421.49,1396.97 1422.84,1397.48 1423.41,1398.18"/>
    </edge>
    <edge id=":2449854663_5" function="internal">
        <lane id=":2449854663_5_0" index="0" disallow="tram rail_urban rail rail_electric ship" speed="3.65" length="2.34" shape="1423.41,1398.18 1423.19,1399.04 1422.20,1400.09"/>
    </edge>
    <edge id=":2714956361_0" function="internal">
        <lane id=":2714956361_0_0" index="0" disallow="tram rail_urban rail rail_electric ship" speed="22.22" length="0.30" shape="800.85,790.66 800.63,790.46"/>
    </edge>
    <edge id=":2714957297_0" function="internal">
        <lane id=":2714957297_0_0" index="0" disallow="tram rail_urban rail rail_electric ship" speed="6.63" length="8.62" shape="810.61,915.31 810.68,917.56 811.47,919.34 812.99,920.66 815.24,921.50"/>
    </edge>
    <edge id=":2714957297_1" function="internal">
        <lane id=":2714957297_1_0" index="0" disallow="tram rail_urban rail rail_electric ship" speed="22.22" length="10.38" shape="810.61,915.31 810.18,918.31 809.83,920.45 809.61,922.59 809.58,925.61"/>
    </edge>
    <edge id=":3366322622_0" function="internal">
        <lane id=":3366322622_0_0" index="0" disallow="tram rail_urban rail rail_electric ship" speed="14.86" length="8.48" shape="1709.61,768.67 1712.14,768.49 1713.92,768.31 1715.61,768.49 1717.90,769.39"/>
    </edge>
    <edge id=":3366322624_0" function="internal">
        <lane id=":3366322624_0_0" index="0" disallow="tram rail_urban rail rail_electric ship" speed="5.46" length="10.32" shape="1691.35,750.51 1694.13,752.51 1695.86,752.71 1696.54,751.11 1696.16,747.70"/>
    </edge>
    <edge id=":3366322624_1" function="internal">
        <lane id=":3366322624_1_0" index="0" disallow="tram rail_urban rail rail_electric ship" speed="22.22" length="15.63" shape="1691.35,750.51 1694.28,753.01 1697.36,755.51 1700.51,757.92 1703.66,760.13"/>
    </edge>
    <edge id=":3366322624_2" function="internal">
        <lane id=":3366322624_2_0" index="0" disallow="tram rail_urban rail rail_electric ship" speed="22.22" length="15.57" shape="1697.68,763.16 1697.68,759.33 1697.38,755.40 1696.86,751.48 1696.16,747.70"/>
    </edge>
    <edge id=":3366322624_3" function="internal">
        <lane id=":3366322624_3_0" index="0" disallow="tram rail_urban rail rail_electric ship" speed="5.64" length="4.64" shape="1697.68,763.16 1698.16,760.40 1699.32,758.98"/>
    </edge>
    <edge id=":3366322624_4" function="internal">
        <lane id=":3366322624_4_0" index="0" disallow="tram rail_urban rail rail_electric ship" speed="5.64" length="4.64" shape="1699.32,758.98 1701.15,758.89 1703.66,760.13"/>
    </edge>
    <edge id=":3956733300_0" function="internal">
        <lane id=":3956733300_0_0" index="0" disallow="tram rail_urban rail rail_electric ship" speed="22.22" length="6.33" shape="942.19,1261.41 936.63,1258.37"/>
    </edge>
    <edge id=":3956733300_1" function="internal">
        <lane id=":3956733300_1_0" index="0" allow="bicycle" speed="15.27" length="6.11" width="1.00" shape="942.72,1260.44 941.21,1259.48 940.33,1258.62 939.55,1257.62 938.39,1256.22"/>
    </edge>
    <edge id=":3956733300_2" function="internal">
        <lane id=":3956733300_2_0" index="0" disallow="tram rail_urban rail rail_electric ship" speed="5.90" length="15.55" shape="939.34,1255.78 942.85,1260.02 943.47,1262.03 941.23,1261.80 936.11,1259.34"/>
    </edge>
    <edge id=":3956733300_3" function="internal">
        <lane id=":3956733300_3_0" index="0" allow="bicycle" speed="2.07" length="1.53" width="1.00" shape="939.34,1255.78 939.27,1256.25 939.08,1256.48 938.79,1256.47 938.39,1256.22"/>
    </edge>
    <edge id=":4699206555_0" function="internal">
        <lane id=":4699206555_0_0" index="0" disallow="tram rail_urban rail rail_electric ship" speed="22.22" length="5.01" shape="1200.65,1033.26 1196.69,1036.33"/>
    </edge>
    <edge id=":4716480953_0" function="internal">
        <lane id=":4716480953_0_0" index="0" disallow="tram rail_urban rail rail_electric ship" speed="22.22" length="0.25" shape="799.34,789.37 799.29,789.32 799.25,789.29 799.22,789.25 799.17,789.20"/>
    </edge>
    <edge id=":4816797047_0" function="internal">
        <lane id=":4816797047_0_0" index="0" allow="bicycle pedestrian" speed="2.78" length="5.48" width="2.00" shape="906.94,859.82 908.36,860.04 909.66,859.86 910.81,859.26 911.83,858.26"/>
    </edge>
    <edge id=":4816797047_1" function="internal">
        <lane id=":4816797047_1_0" index="0" allow="bicycle pedestrian" speed="2.78" length="6.18" width="2.00" shape="906.94,859.82 912.91,861.38"/>
    </edge>
    <edge id=":4816797047_2" function="internal">
        <lane id=":4816797047_2_0" index="0" allow="bicycle pedestrian" speed="2.78" length="6.18" width="2.00" shape="907.84,862.97 911.83,858.26"/>
    </edge>
    <edge id=":4816797047_3" function="internal">
        <lane id=":4816797047_3_0" index="0" allow="bicycle pedestrian" speed="2.78" length="5.60" width="2.00" shape="907.84,862.97 908.94,862.01 910.15,861.42 911.48,861.21 912.91,861.38"/>
    </edge>
    <edge id=":5191743049_0" function="internal">
        <lane id=":5191743049_0_0" index="0" disallow="tram rail_urban rail rail_electric ship" speed="22.22" length="12.12" shape="1690.27,801.04 1685.23,790.02"/>
    </edge>
    <edge id=":5191743049_1" function="internal">
        <lane id=":5191743049_1_0" index="0" disallow="tram rail_urban rail rail_electric ship" speed="12.91" length="12.23" shape="1690.27,801.04 1689.13,797.91 1688.61,795.16 1688.70,792.38 1689.43,789.14"/>
    </edge>
    <edge id=":5191743052_0" function="internal">
        <lane id=":5191743052_0_0" index="0" disallow="tram rail_urban rail rail_electric ship" speed="22.22" length="10.91" shape="1732.44,808.89 1727.57,818.66"/>
    </edge>
    <edge id=":5191743052_1" function="internal">
        <lane id=":5191743052_1_0" index="0" disallow="tram rail_urban rail rail_electric ship" speed="10.15" length="10.28" shape="1732.44,808.89 1730.93,811.28 1729.16,813.16 1727.14,814.54 1724.87,815.41"/>
    </edge>
    <edge id=":5191743056_0" function="internal">
        <lane id=":5191743056_0_0" index="0" disallow="tram rail_urban rail rail_electric ship" speed="13.26" length="9.09" shape="1699.24,812.76 1696.94,811.32 1695.25,810.35 1693.92,809.10 1692.68,806.81"/>
    </edge>
    <edge id=":5201089900_0" function="internal">
        <lane id=":5201089900_0_0" index="0" disallow="tram rail_urban rail rail_electric ship" speed="5.72" length="6.40" shape="813.65,1005.72 812.18,1006.14 811.15,1007.07 810.56,1008.50 810.42,1010.43"/>
    </edge>
    <edge id=":5201089900_1" function="internal">
        <lane id=":5201089900_1_0" index="0" allow="delivery bicycle pedestrian" speed="5.56" length="7.57" shape="813.65,1005.72 811.45,1006.03 809.98,1006.48 808.60,1007.21 806.66,1008.35"/>
    </edge>
    <edge id=":5201089900_2" function="internal">
        <lane id=":5201089900_2_0" index="0" allow="delivery bicycle pedestrian" speed="3.65" length="4.67" shape="813.65,1005.72 812.38,1005.04 811.90,1004.29 812.22,1003.45 813.33,1002.54"/>
    </edge>
    <edge id=":5201089900_3" function="internal">
        <lane id=":5201089900_3_0" index="0" allow="delivery bicycle pedestrian" speed="4.97" length="5.08" shape="810.02,999.65 810.28,1001.04 810.91,1001.98 811.93,1002.48 813.33,1002.54"/>
    </edge>
    <edge id=":5201089900_4" function="internal">
        <lane id=":5201089900_4_0" index="0" disallow="tram rail_urban rail rail_electric ship" speed="22.22" length="10.78" shape="810.02,999.65 810.42,1010.43"/>
    </edge>
    <edge id=":5201089900_5" function="internal">
        <lane id=":5201089900_5_0" index="0" allow="delivery bicycle pedestrian" speed="8.36" length="9.78" shape="810.02,999.65 809.91,1002.68 809.31,1005.14 808.22,1007.03 806.66,1008.35"/>
    </edge>
    <edge id=":5201089900_6" function="internal">
        <lane id=":5201089900_6_0" index="0" allow="delivery bicycle pedestrian" speed="5.56" length="8.94" shape="805.06,1005.58 807.35,1004.24 808.98,1003.40 810.73,1002.89 813.33,1002.54"/>
    </edge>
    <edge id=":5201089900_7" function="internal">
        <lane id=":5201089900_7_0" index="0" disallow="tram rail_urban rail rail_electric ship" speed="5.79" length="9.50" shape="805.06,1005.58 807.30,1004.79 808.94,1005.33 809.98,1007.21 810.42,1010.43"/>
    </edge>
    <edge id=":5201089900_8" function="internal">
        <lane id=":5201089900_8_0" index="0" allow="delivery bicycle pedestrian" speed="3.65" length="4.67" shape="805.06,1005.58 806.50,1005.68 807.25,1006.17 807.30,1007.06 806.66,1008.35"/>
    </edge>
    <edge id=":5201089901_0" function="internal">
        <lane id=":5201089901_0_0" index="0" allow="delivery bicycle pedestrian" speed="4.33" length="3.46" shape="825.49,1005.37 825.10,1004.86 824.24,1004.70 823.21,1004.75 822.31,1004.85"/>
    </edge>
    <edge id=":5201089901_1" function="internal">
        <lane id=":5201089901_1_0" index="0" allow="delivery bicycle pedestrian" speed="5.56" length="7.74" shape="825.49,1005.37 825.66,1003.65 826.50,1002.17 828.00,1000.95 830.16,999.98"/>
    </edge>
    <edge id=":5201089901_2" function="internal">
        <lane id=":5201089901_2_0" index="0" allow="delivery bicycle pedestrian" speed="3.65" length="4.67" shape="825.49,1005.37 826.16,1004.10 826.92,1003.62 827.75,1003.94 828.67,1005.05"/>
    </edge>
    <edge id=":5201089901_3" function="internal">
        <lane id=":5201089901_3_0" index="0" allow="delivery bicycle pedestrian" speed="4.70" length="3.43" shape="831.18,1003.01 830.05,1003.47 829.25,1003.96 828.79,1004.49 828.67,1005.05"/>
    </edge>
    <edge id=":5201089901_4" function="internal">
        <lane id=":5201089901_4_0" index="0" allow="delivery bicycle pedestrian" speed="5.56" length="9.10" shape="831.18,1003.01 828.62,1003.85 826.83,1004.30 825.00,1004.57 822.31,1004.85"/>
    </edge>
    <edge id=":5201089901_5" function="internal">
        <lane id=":5201089901_5_0" index="0" allow="delivery bicycle pedestrian" speed="3.65" length="4.67" shape="831.18,1003.01 829.79,1002.64 829.16,1002.01 829.28,1001.12 830.16,999.98"/>
    </edge>
    <edge id=":5201089901_6" function="internal">
        <lane id=":5201089901_6_0" index="0" allow="delivery bicycle pedestrian" speed="5.56" length="8.37" shape="821.99,1001.66 824.46,1001.41 826.15,1001.17 827.80,1000.75 830.16,999.98"/>
    </edge>
    <edge id=":5201089901_7" function="internal">
        <lane id=":5201089901_7_0" index="0" allow="delivery bicycle pedestrian" speed="5.56" length="8.44" shape="821.99,1001.66 824.78,1001.64 826.83,1002.19 828.12,1003.33 828.67,1005.05"/>
    </edge>
    <edge id=":5201089901_8" function="internal">
        <lane id=":5201089901_8_0" index="0" allow="delivery bicycle pedestrian" speed="3.65" length="4.67" shape="821.99,1001.66 823.26,1002.34 823.74,1003.10 823.42,1003.93 822.31,1004.85"/>
    </edge>
    <edge id=":5201089903_0" function="internal">
        <lane id=":5201089903_0_0" index="0" allow="delivery bicycle pedestrian" speed="4.94" length="5.12" shape="860.18,995.89 859.61,994.59 858.77,993.82 857.65,993.60 856.26,993.92"/>
    </edge>
    <edge id=":5201089903_1" function="internal">